/*--------------------------------*- C++ -*----------------------------------*\
| =========                 |                                                 |
| \      /  F ield         | OpenFOAM: The Open Source CFD Toolbox           |
|  \    /   O peration     | Version:  2.3.0                                 |
|   \  /    A nd           | Web:      www.OpenFOAM.org                      |
|    \/     M anipulation  |                                                 |
\*---------------------------------------------------------------------------*/ 
FoamFile                                                                       
{   
    version     2.0;                                                           
    format      ascii;          
    class       dictionary;         
    location    "constant";         
    object      tables;             
}                   
// * * * * * * * * * * * * * * * * * * * * * * * * * * * * * * * * * * * * * // 
mixtureFractionDefinition      "readFromTable";      
interpolationType      linearInterpolation;      
operatingPresure      1e5;      
canteraFileName      "tables/Table";      
PV_param
101
(
0.000000000000E+00
2.883000000000E-03
5.766000000000E-03
8.649000000000E-03
1.153200000000E-02
1.441500000000E-02
1.729800000000E-02
2.018100000000E-02
2.306400000000E-02
2.594700000000E-02
2.883000000000E-02
3.171300000000E-02
3.459600000000E-02
3.747900000000E-02
4.036200000000E-02
4.324500000000E-02
4.612800000000E-02
4.901100000000E-02
5.189400000000E-02
5.477700000000E-02
5.766000000000E-02
6.054300000000E-02
6.342600000000E-02
6.630900000000E-02
6.919200000000E-02
7.207500000000E-02
7.495800000000E-02
7.784100000000E-02
8.072400000000E-02
8.360700000000E-02
8.649000000000E-02
8.937300000000E-02
9.225600000000E-02
9.513900000000E-02
9.802200000000E-02
1.009050000000E-01
1.037880000000E-01
1.066710000000E-01
1.095540000000E-01
1.124370000000E-01
1.153200000000E-01
1.182030000000E-01
1.210860000000E-01
1.239690000000E-01
1.268520000000E-01
1.297350000000E-01
1.326180000000E-01
1.355010000000E-01
1.383840000000E-01
1.412670000000E-01
1.441500000000E-01
1.470330000000E-01
1.499160000000E-01
1.527990000000E-01
1.556820000000E-01
1.585650000000E-01
1.614480000000E-01
1.643310000000E-01
1.672140000000E-01
1.700970000000E-01
1.729800000000E-01
1.758630000000E-01
1.787460000000E-01
1.816290000000E-01
1.845120000000E-01
1.873950000000E-01
1.902780000000E-01
1.931610000000E-01
1.960440000000E-01
1.989270000000E-01
2.018100000000E-01
2.046930000000E-01
2.075760000000E-01
2.104590000000E-01
2.133420000000E-01
2.162250000000E-01
2.191080000000E-01
2.219910000000E-01
2.248740000000E-01
2.277570000000E-01
2.306400000000E-01
2.335230000000E-01
2.364060000000E-01
2.392890000000E-01
2.421720000000E-01
2.450550000000E-01
2.479380000000E-01
2.508210000000E-01
2.537040000000E-01
2.565870000000E-01
2.594700000000E-01
2.623530000000E-01
2.652360000000E-01
2.681190000000E-01
2.710020000000E-01
2.738850000000E-01
2.767680000000E-01
2.796510000000E-01
2.825340000000E-01
2.854170000000E-01
2.883000000000E-01
);

Zeta_param
51
(
0.000000000000E+00
2.000000000000E-02
4.000000000000E-02
6.000000000000E-02
8.000000000000E-02
1.000000000000E-01
1.200000000000E-01
1.400000000000E-01
1.600000000000E-01
1.800000000000E-01
2.000000000000E-01
2.200000000000E-01
2.400000000000E-01
2.600000000000E-01
2.800000000000E-01
3.000000000000E-01
3.200000000000E-01
3.400000000000E-01
3.600000000000E-01
3.800000000000E-01
4.000000000000E-01
4.200000000000E-01
4.400000000000E-01
4.600000000000E-01
4.800000000000E-01
5.000000000000E-01
5.200000000000E-01
5.400000000000E-01
5.600000000000E-01
5.800000000000E-01
6.000000000000E-01
6.200000000000E-01
6.400000000000E-01
6.600000000000E-01
6.800000000000E-01
7.000000000000E-01
7.200000000000E-01
7.400000000000E-01
7.600000000000E-01
7.800000000000E-01
8.000000000000E-01
8.200000000000E-01
8.400000000000E-01
8.600000000000E-01
8.800000000000E-01
9.000000000000E-01
9.200000000000E-01
9.400000000000E-01
9.600000000000E-01
9.800000000000E-01
1.000000000000E+00
);

f_param
101
(
0.000000000000E+00
1.000000000000E-02
2.000000000000E-02
3.000000000000E-02
4.000000000000E-02
5.000000000000E-02
6.000000000000E-02
7.000000000000E-02
8.000000000000E-02
9.000000000000E-02
1.000000000000E-01
1.100000000000E-01
1.200000000000E-01
1.300000000000E-01
1.400000000000E-01
1.500000000000E-01
1.600000000000E-01
1.700000000000E-01
1.800000000000E-01
1.900000000000E-01
2.000000000000E-01
2.100000000000E-01
2.200000000000E-01
2.300000000000E-01
2.400000000000E-01
2.500000000000E-01
2.600000000000E-01
2.700000000000E-01
2.800000000000E-01
2.900000000000E-01
3.000000000000E-01
3.100000000000E-01
3.200000000000E-01
3.300000000000E-01
3.400000000000E-01
3.500000000000E-01
3.600000000000E-01
3.700000000000E-01
3.800000000000E-01
3.900000000000E-01
4.000000000000E-01
4.100000000000E-01
4.200000000000E-01
4.300000000000E-01
4.400000000000E-01
4.500000000000E-01
4.600000000000E-01
4.700000000000E-01
4.800000000000E-01
4.900000000000E-01
5.000000000000E-01
5.100000000000E-01
5.200000000000E-01
5.300000000000E-01
5.400000000000E-01
5.500000000000E-01
5.600000000000E-01
5.700000000000E-01
5.800000000000E-01
5.900000000000E-01
6.000000000000E-01
6.100000000000E-01
6.200000000000E-01
6.300000000000E-01
6.400000000000E-01
6.500000000000E-01
6.600000000000E-01
6.700000000000E-01
6.800000000000E-01
6.900000000000E-01
7.000000000000E-01
7.100000000000E-01
7.200000000000E-01
7.300000000000E-01
7.400000000000E-01
7.500000000000E-01
7.600000000000E-01
7.700000000000E-01
7.800000000000E-01
7.900000000000E-01
8.000000000000E-01
8.100000000000E-01
8.200000000000E-01
8.300000000000E-01
8.400000000000E-01
8.500000000000E-01
8.600000000000E-01
8.700000000000E-01
8.800000000000E-01
8.900000000000E-01
9.000000000000E-01
9.100000000000E-01
9.200000000000E-01
9.300000000000E-01
9.400000000000E-01
9.500000000000E-01
9.600000000000E-01
9.700000000000E-01
9.800000000000E-01
9.900000000000E-01
1.000000000000E+00
);

